data_image0
_chemical_formula_structural       Si4N6Si2N3Si2N2Si4N5Si4N6Si2N3Si2N2Si4N5Si4N6Si2N3Si2N2Si4N5Si4N6Si2N3Si2N2Si4N5Si4N6Si2N3Si2N2Si4N5Si4N6Si2N3Si2N2Si4N5Si4N6Si2N3Si2N2Si4N5Si4N6Si2N3Si2N2Si4N5Si4N6Si2N3Si2N2Si4N5Si4N6Si2N3Si2N2Si4N5Si4N6Si2N3Si2N2Si4N5Si4N6Si2N3Si2N2Si4N5Si4N6Si2N3Si2N2Si4N5Si4N6Si2N3Si2N2Si4N5Si4N6Si2N3Si2N2Si4N5Si4N6Si2N3Si2N2Si4N5Si4N6Si2N3Si2N2Si4N5Si4N6Si2N3Si2N2Si4N5MoO6C6MoO6C6MoO6C6MoO6C6MoO6C6MoO6C6MoO6C6MoO6C6H76
_chemical_formula_sum              "Si216 N288 Mo8 O48 C48 H76"
_cell_length_a       22.8136
_cell_length_b       39.5144
_cell_length_c       27.0
_cell_angle_alpha    90.0
_cell_angle_beta     90.0
_cell_angle_gamma    90.0

_space_group_name_H-M_alt    "P 1"
_space_group_IT_number       1

loop_
  _space_group_symop_operation_xyz
  'x, y, z'

loop_
  _atom_site_type_symbol
  _atom_site_label
  _atom_site_symmetry_multiplicity
  _atom_site_fract_x
  _atom_site_fract_y
  _atom_site_fract_z
  _atom_site_occupancy
  Si  Si1       1.0  0.09686516  0.038513709999999986  0.07420722  1.0000
  Si  Si2       1.0  0.17600501  0.09897721  0.07420722  1.0000
  Si  Si3       1.0  0.06980174  0.12815284999999998  0.12800722  1.0000
  Si  Si4       1.0  0.22713053  0.02917562  0.07420722  1.0000
  N   N1        1.0  0.0  0.11111104  0.12800722  1.0000
  N   N2        1.0  0.1666669  0.05555552  0.07420722  1.0000
  N   N3        1.0  0.21142292  0.11164215999999999  0.12800722  1.0000
  N   N4        1.0  0.10650814  0.11677638999999997  0.07420722  1.0000
  N   N5        1.0  0.060158760000000006  0.049890139999999986  0.12800722  1.0000
  N   N6        1.0  0.22841906000000003  0.00513425  0.12800722  1.0000
  Si  Si5       1.0  0.00933811  0.26564377  0.07420722  1.0000
  Si  Si6       1.0  0.060463630000000004  0.19584217  0.07420722  1.0000
  N   N7        1.0  0.0  0.22222204999999995  0.07420722  1.0000
  N   N8        1.0  0.04475598000000001  0.27830868999999997  0.12800722  1.0000
  N   N9        1.0  0.06175216000000001  0.17180079  0.12800722  1.0000
  Si  Si7       1.0  0.27287017  0.13749093999999998  0.12800722  1.0000
  Si  Si8       1.0  0.32399573  0.06768931999999998  0.12800722  1.0000
  N   N10       1.0  0.27158169  0.1615323  0.07420722  1.0000
  N   N11       1.0  0.28857782  0.0550244  0.07420722  1.0000
  Si  Si9       1.0  0.10620327000000002  0.30415747  0.12800722  1.0000
  Si  Si10      1.0  0.26353206  0.20518026  0.07420722  1.0000
  Si  Si11      1.0  0.15732879000000002  0.23435587999999996  0.12800722  1.0000
  Si  Si12      1.0  0.23646864000000006  0.29481937999999996  0.12800722  1.0000
  N   N12       1.0  0.1666669  0.2777775699999999  0.12800722  1.0000
  N   N13       1.0  0.10491479  0.32819886  0.07420722  1.0000
  N   N14       1.0  0.27317504  0.28344294999999997  0.07420722  1.0000
  N   N15       1.0  0.22682567  0.21655669999999996  0.12800722  1.0000
  N   N16       1.0  0.12191092  0.22169095  0.07420722  1.0000
  Si  Si13      1.0  0.09686516  0.038513709999999986  0.18180719  1.0000
  Si  Si14      1.0  0.17600501  0.09897721  0.18180719  1.0000
  Si  Si15      1.0  0.06980174  0.12815284999999998  0.23560719  1.0000
  Si  Si16      1.0  0.22713053  0.02917562  0.18180719  1.0000
  N   N17       1.0  0.0  0.11111104  0.23560719  1.0000
  N   N18       1.0  0.1666669  0.05555552  0.18180719  1.0000
  N   N19       1.0  0.21142292  0.11164215999999999  0.23560719  1.0000
  N   N20       1.0  0.10650814  0.11677638999999997  0.18180719  1.0000
  N   N21       1.0  0.060158760000000006  0.049890139999999986  0.23560719  1.0000
  N   N22       1.0  0.22841906000000003  0.00513425  0.23560719  1.0000
  Si  Si17      1.0  0.00933811  0.26564377  0.18180719  1.0000
  Si  Si18      1.0  0.060463630000000004  0.19584217  0.18180719  1.0000
  N   N23       1.0  0.0  0.22222204999999995  0.18180719  1.0000
  N   N24       1.0  0.04475598000000001  0.27830868999999997  0.23560719  1.0000
  N   N25       1.0  0.06175216000000001  0.17180079  0.23560719  1.0000
  Si  Si19      1.0  0.27287017  0.13749093999999998  0.23560719  1.0000
  Si  Si20      1.0  0.32399573  0.06768931999999998  0.23560719  1.0000
  N   N26       1.0  0.27158169  0.1615323  0.18180719  1.0000
  N   N27       1.0  0.28857782  0.0550244  0.18180719  1.0000
  Si  Si21      1.0  0.10620327000000002  0.30415747  0.23560719  1.0000
  Si  Si22      1.0  0.26353206  0.20518026  0.18180719  1.0000
  Si  Si23      1.0  0.15732879000000002  0.23435587999999996  0.23560719  1.0000
  Si  Si24      1.0  0.23646864000000006  0.29481937999999996  0.23560719  1.0000
  N   N28       1.0  0.1666669  0.2777775699999999  0.23560719  1.0000
  N   N29       1.0  0.10491479  0.32819886  0.18180719  1.0000
  N   N30       1.0  0.27317504  0.28344294999999997  0.18180719  1.0000
  N   N31       1.0  0.22682567  0.21655669999999996  0.23560719  1.0000
  N   N32       1.0  0.12191092  0.22169095  0.18180719  1.0000
  Si  Si25      1.0  0.09686516  0.37184682  0.07420722  1.0000
  Si  Si26      1.0  0.17600501  0.43231031999999997  0.07420722  1.0000
  Si  Si27      1.0  0.06980174  0.46148594  0.12800722  1.0000
  Si  Si28      1.0  0.22713053  0.3625087299999999  0.07420722  1.0000
  N   N33       1.0  0.0  0.44444412999999994  0.12800722  1.0000
  N   N34       1.0  0.1666669  0.38888861  0.07420722  1.0000
  N   N35       1.0  0.21142292  0.44497524999999993  0.12800722  1.0000
  N   N36       1.0  0.10650814  0.4501095  0.07420722  1.0000
  N   N37       1.0  0.060158760000000006  0.38322323  0.12800722  1.0000
  N   N38       1.0  0.22841906000000003  0.33846734  0.12800722  1.0000
  Si  Si29      1.0  0.00933811  0.5989768499999999  0.07420722  1.0000
  Si  Si30      1.0  0.060463630000000004  0.52917526  0.07420722  1.0000
  N   N39       1.0  0.0  0.55555516  0.07420722  1.0000
  N   N40       1.0  0.04475598000000001  0.61164181  0.12800722  1.0000
  N   N41       1.0  0.06175216000000001  0.5051339  0.12800722  1.0000
  Si  Si31      1.0  0.27287017  0.47082402999999995  0.12800722  1.0000
  Si  Si32      1.0  0.32399573  0.4010224399999999  0.12800722  1.0000
  N   N42       1.0  0.27158169  0.49486539  0.07420722  1.0000
  N   N43       1.0  0.28857782  0.3883574799999999  0.07420722  1.0000
  Si  Si33      1.0  0.10620327000000002  0.63749056  0.12800722  1.0000
  Si  Si34      1.0  0.26353206  0.53851335  0.07420722  1.0000
  Si  Si35      1.0  0.15732879000000002  0.5676889699999998  0.12800722  1.0000
  Si  Si36      1.0  0.23646864000000006  0.62815247  0.12800722  1.0000
  N   N44       1.0  0.1666669  0.61111068  0.12800722  1.0000
  N   N45       1.0  0.10491479  0.66153195  0.07420722  1.0000
  N   N46       1.0  0.27317504  0.61677606  0.07420722  1.0000
  N   N47       1.0  0.22682567  0.54988979  0.12800722  1.0000
  N   N48       1.0  0.12191092  0.55502404  0.07420722  1.0000
  Si  Si37      1.0  0.09686516  0.37184682  0.18180719  1.0000
  Si  Si38      1.0  0.17600501  0.43231031999999997  0.18180719  1.0000
  Si  Si39      1.0  0.06980174  0.46148594  0.23560719  1.0000
  Si  Si40      1.0  0.22713053  0.3625087299999999  0.18180719  1.0000
  N   N49       1.0  0.0  0.44444412999999994  0.23560719  1.0000
  N   N50       1.0  0.1666669  0.38888861  0.18180719  1.0000
  N   N51       1.0  0.21142292  0.44497524999999993  0.23560719  1.0000
  N   N52       1.0  0.10650814  0.4501095  0.18180719  1.0000
  N   N53       1.0  0.060158760000000006  0.38322323  0.23560719  1.0000
  N   N54       1.0  0.22841906000000003  0.33846734  0.23560719  1.0000
  Si  Si41      1.0  0.00933811  0.5989768499999999  0.18180719  1.0000
  Si  Si42      1.0  0.060463630000000004  0.52917526  0.18180719  1.0000
  N   N55       1.0  0.0  0.55555516  0.18180719  1.0000
  N   N56       1.0  0.04475598000000001  0.61164181  0.23560719  1.0000
  N   N57       1.0  0.06175216000000001  0.5051339  0.23560719  1.0000
  Si  Si43      1.0  0.27287017  0.47082402999999995  0.23560719  1.0000
  Si  Si44      1.0  0.32399573  0.4010224399999999  0.23560719  1.0000
  N   N58       1.0  0.27158169  0.49486539  0.18180719  1.0000
  N   N59       1.0  0.28857782  0.3883574799999999  0.18180719  1.0000
  Si  Si45      1.0  0.10620327000000002  0.63749056  0.23560719  1.0000
  Si  Si46      1.0  0.26353206  0.53851335  0.18180719  1.0000
  Si  Si47      1.0  0.15732879000000002  0.5676889699999998  0.23560719  1.0000
  Si  Si48      1.0  0.23646864000000006  0.62815247  0.23560719  1.0000
  N   N60       1.0  0.1666669  0.61111068  0.23560719  1.0000
  N   N61       1.0  0.10491479  0.66153195  0.18180719  1.0000
  N   N62       1.0  0.27317504  0.61677606  0.18180719  1.0000
  N   N63       1.0  0.22682567  0.54988979  0.23560719  1.0000
  N   N64       1.0  0.12191092  0.55502404  0.18180719  1.0000
  Si  Si49      1.0  0.09686516  0.70517991  0.07420722  1.0000
  Si  Si50      1.0  0.17600501  0.76564341  0.07420722  1.0000
  Si  Si51      1.0  0.06980174  0.7948190299999998  0.12800722  1.0000
  Si  Si52      1.0  0.22713053  0.69584182  0.07420722  1.0000
  N   N65       1.0  0.0  0.77777724  0.12800722  1.0000
  N   N66       1.0  0.1666669  0.7222216999999999  0.07420722  1.0000
  N   N67       1.0  0.21142292  0.77830834  0.12800722  1.0000
  N   N68       1.0  0.10650814  0.78344259  0.07420722  1.0000
  N   N69       1.0  0.060158760000000006  0.71655634  0.12800722  1.0000
  N   N70       1.0  0.22841906000000003  0.6718004299999999  0.12800722  1.0000
  Si  Si53      1.0  0.00933811  0.9323099699999999  0.07420722  1.0000
  Si  Si54      1.0  0.060463630000000004  0.86250835  0.07420722  1.0000
  N   N71       1.0  0.0  0.88888825  0.07420722  1.0000
  N   N72       1.0  0.04475598000000001  0.9449749  0.12800722  1.0000
  N   N73       1.0  0.06175216000000001  0.8384669899999998  0.12800722  1.0000
  Si  Si55      1.0  0.27287017  0.8041571199999998  0.12800722  1.0000
  Si  Si56      1.0  0.32399573  0.73435553  0.12800722  1.0000
  N   N74       1.0  0.27158169  0.8281985  0.07420722  1.0000
  N   N75       1.0  0.28857782  0.7216906  0.07420722  1.0000
  Si  Si57      1.0  0.10620327000000002  0.97082367  0.12800722  1.0000
  Si  Si58      1.0  0.26353206  0.8718464699999999  0.07420722  1.0000
  Si  Si59      1.0  0.15732879000000002  0.9010220799999997  0.12800722  1.0000
  Si  Si60      1.0  0.23646864000000006  0.96148559  0.12800722  1.0000
  N   N76       1.0  0.1666669  0.94444377  0.12800722  1.0000
  N   N77       1.0  0.10491479  0.9948650399999999  0.07420722  1.0000
  N   N78       1.0  0.27317504  0.9501091499999998  0.07420722  1.0000
  N   N79       1.0  0.22682567  0.8832228799999999  0.12800722  1.0000
  N   N80       1.0  0.12191092  0.88835713  0.07420722  1.0000
  Si  Si61      1.0  0.09686516  0.70517991  0.18180719  1.0000
  Si  Si62      1.0  0.17600501  0.76564341  0.18180719  1.0000
  Si  Si63      1.0  0.06980174  0.7948190299999998  0.23560719  1.0000
  Si  Si64      1.0  0.22713053  0.69584182  0.18180719  1.0000
  N   N81       1.0  0.0  0.77777724  0.23560719  1.0000
  N   N82       1.0  0.1666669  0.7222216999999999  0.18180719  1.0000
  N   N83       1.0  0.21142292  0.77830834  0.23560719  1.0000
  N   N84       1.0  0.10650814  0.78344259  0.18180719  1.0000
  N   N85       1.0  0.060158760000000006  0.71655634  0.23560719  1.0000
  N   N86       1.0  0.22841906000000003  0.6718004299999999  0.23560719  1.0000
  Si  Si65      1.0  0.00933811  0.9323099699999999  0.18180719  1.0000
  Si  Si66      1.0  0.060463630000000004  0.86250835  0.18180719  1.0000
  N   N87       1.0  0.0  0.88888825  0.18180719  1.0000
  N   N88       1.0  0.04475598000000001  0.9449749  0.23560719  1.0000
  N   N89       1.0  0.06175216000000001  0.8384669899999998  0.23560719  1.0000
  Si  Si67      1.0  0.27287017  0.8041571199999998  0.23560719  1.0000
  Si  Si68      1.0  0.32399573  0.73435553  0.23560719  1.0000
  N   N90       1.0  0.27158169  0.8281985  0.18180719  1.0000
  N   N91       1.0  0.28857782  0.7216906  0.18180719  1.0000
  Si  Si69      1.0  0.10620327000000002  0.97082367  0.23560719  1.0000
  Si  Si70      1.0  0.26353206  0.8718464699999999  0.18180719  1.0000
  Si  Si71      1.0  0.15732879000000002  0.9010220799999997  0.23560719  1.0000
  Si  Si72      1.0  0.23646864000000006  0.96148559  0.23560719  1.0000
  N   N92       1.0  0.1666669  0.94444377  0.23560719  1.0000
  N   N93       1.0  0.10491479  0.9948650399999999  0.18180719  1.0000
  N   N94       1.0  0.27317504  0.9501091499999998  0.18180719  1.0000
  N   N95       1.0  0.22682567  0.8832228799999999  0.23560719  1.0000
  N   N96       1.0  0.12191092  0.88835713  0.18180719  1.0000
  Si  Si73      1.0  0.43019896  0.038513709999999986  0.07420722  1.0000
  Si  Si74      1.0  0.5093388600000001  0.09897721  0.07420722  1.0000
  Si  Si75      1.0  0.40313559  0.12815284999999998  0.12800722  1.0000
  Si  Si76      1.0  0.56046437  0.02917562  0.07420722  1.0000
  N   N97       1.0  0.3333338  0.11111104  0.12800722  1.0000
  N   N98       1.0  0.50000075  0.05555552  0.07420722  1.0000
  N   N99       1.0  0.54475672  0.11164215999999999  0.12800722  1.0000
  N   N100      1.0  0.4398419800000001  0.11677638999999997  0.07420722  1.0000
  N   N101      1.0  0.39349261  0.049890139999999986  0.12800722  1.0000
  N   N102      1.0  0.56175286  0.00513425  0.12800722  1.0000
  Si  Si77      1.0  0.3426719100000001  0.26564377  0.07420722  1.0000
  Si  Si78      1.0  0.39379747  0.19584217  0.07420722  1.0000
  N   N103      1.0  0.3333338  0.22222204999999995  0.07420722  1.0000
  N   N104      1.0  0.37808982  0.27830868999999997  0.12800722  1.0000
  N   N105      1.0  0.39508596  0.17180079  0.12800722  1.0000
  Si  Si79      1.0  0.6062040200000001  0.13749093999999998  0.12800722  1.0000
  Si  Si80      1.0  0.65732953  0.06768931999999998  0.12800722  1.0000
  N   N106      1.0  0.60491549  0.1615323  0.07420722  1.0000
  N   N107      1.0  0.62191167  0.0550244  0.07420722  1.0000
  Si  Si81      1.0  0.43953707000000003  0.30415747  0.12800722  1.0000
  Si  Si82      1.0  0.5968659  0.20518026  0.07420722  1.0000
  Si  Si83      1.0  0.49066263  0.23435587999999996  0.12800722  1.0000
  Si  Si84      1.0  0.56980249  0.29481937999999996  0.12800722  1.0000
  N   N108      1.0  0.50000075  0.2777775699999999  0.12800722  1.0000
  N   N109      1.0  0.43824859000000005  0.32819886  0.07420722  1.0000
  N   N110      1.0  0.60650888  0.28344294999999997  0.07420722  1.0000
  N   N111      1.0  0.56015951  0.21655669999999996  0.12800722  1.0000
  N   N112      1.0  0.45524472  0.22169095  0.07420722  1.0000
  Si  Si85      1.0  0.43019896  0.038513709999999986  0.18180719  1.0000
  Si  Si86      1.0  0.5093388600000001  0.09897721  0.18180719  1.0000
  Si  Si87      1.0  0.40313559  0.12815284999999998  0.23560719  1.0000
  Si  Si88      1.0  0.56046437  0.02917562  0.18180719  1.0000
  N   N113      1.0  0.3333338  0.11111104  0.23560719  1.0000
  N   N114      1.0  0.50000075  0.05555552  0.18180719  1.0000
  N   N115      1.0  0.54475672  0.11164215999999999  0.23560719  1.0000
  N   N116      1.0  0.4398419800000001  0.11677638999999997  0.18180719  1.0000
  N   N117      1.0  0.39349261  0.049890139999999986  0.23560719  1.0000
  N   N118      1.0  0.56175286  0.00513425  0.23560719  1.0000
  Si  Si89      1.0  0.3426719100000001  0.26564377  0.18180719  1.0000
  Si  Si90      1.0  0.39379747  0.19584217  0.18180719  1.0000
  N   N119      1.0  0.3333338  0.22222204999999995  0.18180719  1.0000
  N   N120      1.0  0.37808982  0.27830868999999997  0.23560719  1.0000
  N   N121      1.0  0.39508596  0.17180079  0.23560719  1.0000
  Si  Si91      1.0  0.6062040200000001  0.13749093999999998  0.23560719  1.0000
  Si  Si92      1.0  0.65732953  0.06768931999999998  0.23560719  1.0000
  N   N122      1.0  0.60491549  0.1615323  0.18180719  1.0000
  N   N123      1.0  0.62191167  0.0550244  0.18180719  1.0000
  Si  Si93      1.0  0.43953707000000003  0.30415747  0.23560719  1.0000
  Si  Si94      1.0  0.5968659  0.20518026  0.18180719  1.0000
  Si  Si95      1.0  0.49066263  0.23435587999999996  0.23560719  1.0000
  Si  Si96      1.0  0.56980249  0.29481937999999996  0.23560719  1.0000
  N   N124      1.0  0.50000075  0.2777775699999999  0.23560719  1.0000
  N   N125      1.0  0.43824859000000005  0.32819886  0.18180719  1.0000
  N   N126      1.0  0.60650888  0.28344294999999997  0.18180719  1.0000
  N   N127      1.0  0.56015951  0.21655669999999996  0.23560719  1.0000
  N   N128      1.0  0.45524472  0.22169095  0.18180719  1.0000
  Si  Si97      1.0  0.43019896  0.37184682  0.07420722  1.0000
  Si  Si98      1.0  0.5093388600000001  0.43231031999999997  0.07420722  1.0000
  Si  Si99      1.0  0.40313559  0.46148594  0.12800722  1.0000
  Si  Si100     1.0  0.56046437  0.3625087299999999  0.07420722  1.0000
  N   N129      1.0  0.3333338  0.44444412999999994  0.12800722  1.0000
  N   N130      1.0  0.50000075  0.38888861  0.07420722  1.0000
  N   N131      1.0  0.54475672  0.44497524999999993  0.12800722  1.0000
  N   N132      1.0  0.4398419800000001  0.4501095  0.07420722  1.0000
  N   N133      1.0  0.39349261  0.38322323  0.12800722  1.0000
  N   N134      1.0  0.56175286  0.33846734  0.12800722  1.0000
  Si  Si101     1.0  0.3426719100000001  0.5989768499999999  0.07420722  1.0000
  Si  Si102     1.0  0.39379747  0.52917526  0.07420722  1.0000
  N   N135      1.0  0.3333338  0.55555516  0.07420722  1.0000
  N   N136      1.0  0.37808982  0.61164181  0.12800722  1.0000
  N   N137      1.0  0.39508596  0.5051339  0.12800722  1.0000
  Si  Si103     1.0  0.6062040200000001  0.47082402999999995  0.12800722  1.0000
  Si  Si104     1.0  0.65732953  0.4010224399999999  0.12800722  1.0000
  N   N138      1.0  0.60491549  0.49486539  0.07420722  1.0000
  N   N139      1.0  0.62191167  0.3883574799999999  0.07420722  1.0000
  Si  Si105     1.0  0.43953707000000003  0.63749056  0.12800722  1.0000
  Si  Si106     1.0  0.5968659  0.53851335  0.07420722  1.0000
  Si  Si107     1.0  0.49066263  0.5676889699999998  0.12800722  1.0000
  Si  Si108     1.0  0.56980249  0.62815247  0.12800722  1.0000
  N   N140      1.0  0.50000075  0.61111068  0.12800722  1.0000
  N   N141      1.0  0.43824859000000005  0.66153195  0.07420722  1.0000
  N   N142      1.0  0.60650888  0.61677606  0.07420722  1.0000
  N   N143      1.0  0.56015951  0.54988979  0.12800722  1.0000
  N   N144      1.0  0.45524472  0.55502404  0.07420722  1.0000
  Si  Si109     1.0  0.43019896  0.37184682  0.18180719  1.0000
  Si  Si110     1.0  0.5093388600000001  0.43231031999999997  0.18180719  1.0000
  Si  Si111     1.0  0.40313559  0.46148594  0.23560719  1.0000
  Si  Si112     1.0  0.56046437  0.3625087299999999  0.18180719  1.0000
  N   N145      1.0  0.3333338  0.44444412999999994  0.23560719  1.0000
  N   N146      1.0  0.50000075  0.38888861  0.18180719  1.0000
  N   N147      1.0  0.54475672  0.44497524999999993  0.23560719  1.0000
  N   N148      1.0  0.4398419800000001  0.4501095  0.18180719  1.0000
  N   N149      1.0  0.39349261  0.38322323  0.23560719  1.0000
  N   N150      1.0  0.56175286  0.33846734  0.23560719  1.0000
  Si  Si113     1.0  0.3426719100000001  0.5989768499999999  0.18180719  1.0000
  Si  Si114     1.0  0.39379747  0.52917526  0.18180719  1.0000
  N   N151      1.0  0.3333338  0.55555516  0.18180719  1.0000
  N   N152      1.0  0.37808982  0.61164181  0.23560719  1.0000
  N   N153      1.0  0.39508596  0.5051339  0.23560719  1.0000
  Si  Si115     1.0  0.6062040200000001  0.47082402999999995  0.23560719  1.0000
  Si  Si116     1.0  0.65732953  0.4010224399999999  0.23560719  1.0000
  N   N154      1.0  0.60491549  0.49486539  0.18180719  1.0000
  N   N155      1.0  0.62191167  0.3883574799999999  0.18180719  1.0000
  Si  Si117     1.0  0.43953707000000003  0.63749056  0.23560719  1.0000
  Si  Si118     1.0  0.5968659  0.53851335  0.18180719  1.0000
  Si  Si119     1.0  0.49066263  0.5676889699999998  0.23560719  1.0000
  Si  Si120     1.0  0.56980249  0.62815247  0.23560719  1.0000
  N   N156      1.0  0.50000075  0.61111068  0.23560719  1.0000
  N   N157      1.0  0.43824859000000005  0.66153195  0.18180719  1.0000
  N   N158      1.0  0.60650888  0.61677606  0.18180719  1.0000
  N   N159      1.0  0.56015951  0.54988979  0.23560719  1.0000
  N   N160      1.0  0.45524472  0.55502404  0.18180719  1.0000
  Si  Si121     1.0  0.43019896  0.70517991  0.07420722  1.0000
  Si  Si122     1.0  0.5093388600000001  0.76564341  0.07420722  1.0000
  Si  Si123     1.0  0.40313559  0.7948190299999998  0.12800722  1.0000
  Si  Si124     1.0  0.56046437  0.69584182  0.07420722  1.0000
  N   N161      1.0  0.3333338  0.77777724  0.12800722  1.0000
  N   N162      1.0  0.50000075  0.7222216999999999  0.07420722  1.0000
  N   N163      1.0  0.54475672  0.77830834  0.12800722  1.0000
  N   N164      1.0  0.4398419800000001  0.78344259  0.07420722  1.0000
  N   N165      1.0  0.39349261  0.71655634  0.12800722  1.0000
  N   N166      1.0  0.56175286  0.6718004299999999  0.12800722  1.0000
  Si  Si125     1.0  0.3426719100000001  0.9323099699999999  0.07420722  1.0000
  Si  Si126     1.0  0.39379747  0.86250835  0.07420722  1.0000
  N   N167      1.0  0.3333338  0.88888825  0.07420722  1.0000
  N   N168      1.0  0.37808982  0.9449749  0.12800722  1.0000
  N   N169      1.0  0.39508596  0.8384669899999998  0.12800722  1.0000
  Si  Si127     1.0  0.6062040200000001  0.8041571199999998  0.12800722  1.0000
  Si  Si128     1.0  0.65732953  0.73435553  0.12800722  1.0000
  N   N170      1.0  0.60491549  0.8281985  0.07420722  1.0000
  N   N171      1.0  0.62191167  0.7216906  0.07420722  1.0000
  Si  Si129     1.0  0.43953707000000003  0.97082367  0.12800722  1.0000
  Si  Si130     1.0  0.5968659  0.8718464699999999  0.07420722  1.0000
  Si  Si131     1.0  0.49066263  0.9010220799999997  0.12800722  1.0000
  Si  Si132     1.0  0.56980249  0.96148559  0.12800722  1.0000
  N   N172      1.0  0.50000075  0.94444377  0.12800722  1.0000
  N   N173      1.0  0.43824859000000005  0.9948650399999999  0.07420722  1.0000
  N   N174      1.0  0.60650888  0.9501091499999998  0.07420722  1.0000
  N   N175      1.0  0.56015951  0.8832228799999999  0.12800722  1.0000
  N   N176      1.0  0.45524472  0.88835713  0.07420722  1.0000
  Si  Si133     1.0  0.43019896  0.70517991  0.18180719  1.0000
  Si  Si134     1.0  0.5093388600000001  0.76564341  0.18180719  1.0000
  Si  Si135     1.0  0.40313559  0.7948190299999998  0.23560719  1.0000
  Si  Si136     1.0  0.56046437  0.69584182  0.18180719  1.0000
  N   N177      1.0  0.3333338  0.77777724  0.23560719  1.0000
  N   N178      1.0  0.50000075  0.7222216999999999  0.18180719  1.0000
  N   N179      1.0  0.54475672  0.77830834  0.23560719  1.0000
  N   N180      1.0  0.4398419800000001  0.78344259  0.18180719  1.0000
  N   N181      1.0  0.39349261  0.71655634  0.23560719  1.0000
  N   N182      1.0  0.56175286  0.6718004299999999  0.23560719  1.0000
  Si  Si137     1.0  0.3426719100000001  0.9323099699999999  0.18180719  1.0000
  Si  Si138     1.0  0.39379747  0.86250835  0.18180719  1.0000
  N   N183      1.0  0.3333338  0.88888825  0.18180719  1.0000
  N   N184      1.0  0.37808982  0.9449749  0.23560719  1.0000
  N   N185      1.0  0.39508596  0.8384669899999998  0.23560719  1.0000
  Si  Si139     1.0  0.6062040200000001  0.8041571199999998  0.23560719  1.0000
  Si  Si140     1.0  0.65732953  0.73435553  0.23560719  1.0000
  N   N186      1.0  0.60491549  0.8281985  0.18180719  1.0000
  N   N187      1.0  0.62191167  0.7216906  0.18180719  1.0000
  Si  Si141     1.0  0.43953707000000003  0.97082367  0.23560719  1.0000
  Si  Si142     1.0  0.5968659  0.8718464699999999  0.18180719  1.0000
  Si  Si143     1.0  0.49066263  0.9010220799999997  0.23560719  1.0000
  Si  Si144     1.0  0.56980249  0.96148559  0.23560719  1.0000
  N   N188      1.0  0.50000075  0.94444377  0.23560719  1.0000
  N   N189      1.0  0.43824859000000005  0.9948650399999999  0.18180719  1.0000
  N   N190      1.0  0.60650888  0.9501091499999998  0.18180719  1.0000
  N   N191      1.0  0.56015951  0.8832228799999999  0.23560719  1.0000
  N   N192      1.0  0.45524472  0.88835713  0.18180719  1.0000
  Si  Si145     1.0  0.7635328  0.038513709999999986  0.07420722  1.0000
  Si  Si146     1.0  0.8426726600000001  0.09897721  0.07420722  1.0000
  Si  Si147     1.0  0.73646939  0.12815284999999998  0.12800722  1.0000
  Si  Si148     1.0  0.89379817  0.02917562  0.07420722  1.0000
  N   N193      1.0  0.66666765  0.11111104  0.12800722  1.0000
  N   N194      1.0  0.83333455  0.05555552  0.07420722  1.0000
  N   N195      1.0  0.87809052  0.11164215999999999  0.12800722  1.0000
  N   N196      1.0  0.77317578  0.11677638999999997  0.07420722  1.0000
  N   N197      1.0  0.72682641  0.049890139999999986  0.12800722  1.0000
  N   N198      1.0  0.8950867000000002  0.00513425  0.12800722  1.0000
  Si  Si149     1.0  0.67600576  0.26564377  0.07420722  1.0000
  Si  Si150     1.0  0.72713127  0.19584217  0.07420722  1.0000
  N   N199      1.0  0.66666765  0.22222204999999995  0.07420722  1.0000
  N   N200      1.0  0.71142362  0.27830868999999997  0.12800722  1.0000
  N   N201      1.0  0.7284198000000001  0.17180079  0.12800722  1.0000
  Si  Si151     1.0  0.93953782  0.13749093999999998  0.12800722  1.0000
  Si  Si152     1.0  0.9906633300000002  0.06768931999999998  0.12800722  1.0000
  N   N202      1.0  0.9382493300000001  0.1615323  0.07420722  1.0000
  N   N203      1.0  0.9552454700000003  0.0550244  0.07420722  1.0000
  Si  Si153     1.0  0.77287092  0.30415747  0.12800722  1.0000
  Si  Si154     1.0  0.93019971  0.20518026  0.07420722  1.0000
  Si  Si155     1.0  0.8239964300000001  0.23435587999999996  0.12800722  1.0000
  Si  Si156     1.0  0.9031362900000002  0.29481937999999996  0.12800722  1.0000
  N   N204      1.0  0.83333455  0.2777775699999999  0.12800722  1.0000
  N   N205      1.0  0.77158239  0.32819886  0.07420722  1.0000
  N   N206      1.0  0.93984268  0.28344294999999997  0.07420722  1.0000
  N   N207      1.0  0.89349331  0.21655669999999996  0.12800722  1.0000
  N   N208      1.0  0.7885785700000001  0.22169095  0.07420722  1.0000
  Si  Si157     1.0  0.7635328  0.038513709999999986  0.18180719  1.0000
  Si  Si158     1.0  0.8426726600000001  0.09897721  0.18180719  1.0000
  Si  Si159     1.0  0.73646939  0.12815284999999998  0.23560719  1.0000
  Si  Si160     1.0  0.89379817  0.02917562  0.18180719  1.0000
  N   N209      1.0  0.66666765  0.11111104  0.23560719  1.0000
  N   N210      1.0  0.83333455  0.05555552  0.18180719  1.0000
  N   N211      1.0  0.87809052  0.11164215999999999  0.23560719  1.0000
  N   N212      1.0  0.77317578  0.11677638999999997  0.18180719  1.0000
  N   N213      1.0  0.72682641  0.049890139999999986  0.23560719  1.0000
  N   N214      1.0  0.8950867000000002  0.00513425  0.23560719  1.0000
  Si  Si161     1.0  0.67600576  0.26564377  0.18180719  1.0000
  Si  Si162     1.0  0.72713127  0.19584217  0.18180719  1.0000
  N   N215      1.0  0.66666765  0.22222204999999995  0.18180719  1.0000
  N   N216      1.0  0.71142362  0.27830868999999997  0.23560719  1.0000
  N   N217      1.0  0.7284198000000001  0.17180079  0.23560719  1.0000
  Si  Si163     1.0  0.93953782  0.13749093999999998  0.23560719  1.0000
  Si  Si164     1.0  0.9906633300000002  0.06768931999999998  0.23560719  1.0000
  N   N218      1.0  0.9382493300000001  0.1615323  0.18180719  1.0000
  N   N219      1.0  0.9552454700000003  0.0550244  0.18180719  1.0000
  Si  Si165     1.0  0.77287092  0.30415747  0.23560719  1.0000
  Si  Si166     1.0  0.93019971  0.20518026  0.18180719  1.0000
  Si  Si167     1.0  0.8239964300000001  0.23435587999999996  0.23560719  1.0000
  Si  Si168     1.0  0.9031362900000002  0.29481937999999996  0.23560719  1.0000
  N   N220      1.0  0.83333455  0.2777775699999999  0.23560719  1.0000
  N   N221      1.0  0.77158239  0.32819886  0.18180719  1.0000
  N   N222      1.0  0.93984268  0.28344294999999997  0.18180719  1.0000
  N   N223      1.0  0.89349331  0.21655669999999996  0.23560719  1.0000
  N   N224      1.0  0.7885785700000001  0.22169095  0.18180719  1.0000
  Si  Si169     1.0  0.7635328  0.37184682  0.07420722  1.0000
  Si  Si170     1.0  0.8426726600000001  0.43231031999999997  0.07420722  1.0000
  Si  Si171     1.0  0.73646939  0.46148594  0.12800722  1.0000
  Si  Si172     1.0  0.89379817  0.3625087299999999  0.07420722  1.0000
  N   N225      1.0  0.66666765  0.44444412999999994  0.12800722  1.0000
  N   N226      1.0  0.83333455  0.38888861  0.07420722  1.0000
  N   N227      1.0  0.87809052  0.44497524999999993  0.12800722  1.0000
  N   N228      1.0  0.77317578  0.4501095  0.07420722  1.0000
  N   N229      1.0  0.72682641  0.38322323  0.12800722  1.0000
  N   N230      1.0  0.8950867000000002  0.33846734  0.12800722  1.0000
  Si  Si173     1.0  0.67600576  0.5989768499999999  0.07420722  1.0000
  Si  Si174     1.0  0.72713127  0.52917526  0.07420722  1.0000
  N   N231      1.0  0.66666765  0.55555516  0.07420722  1.0000
  N   N232      1.0  0.71142362  0.61164181  0.12800722  1.0000
  N   N233      1.0  0.7284198000000001  0.5051339  0.12800722  1.0000
  Si  Si175     1.0  0.93953782  0.47082402999999995  0.12800722  1.0000
  Si  Si176     1.0  0.9906633300000002  0.4010224399999999  0.12800722  1.0000
  N   N234      1.0  0.9382493300000001  0.49486539  0.07420722  1.0000
  N   N235      1.0  0.9552454700000003  0.3883574799999999  0.07420722  1.0000
  Si  Si177     1.0  0.77287092  0.63749056  0.12800722  1.0000
  Si  Si178     1.0  0.93019971  0.53851335  0.07420722  1.0000
  Si  Si179     1.0  0.8239964300000001  0.5676889699999998  0.12800722  1.0000
  Si  Si180     1.0  0.9031362900000002  0.62815247  0.12800722  1.0000
  N   N236      1.0  0.83333455  0.61111068  0.12800722  1.0000
  N   N237      1.0  0.77158239  0.66153195  0.07420722  1.0000
  N   N238      1.0  0.93984268  0.61677606  0.07420722  1.0000
  N   N239      1.0  0.89349331  0.54988979  0.12800722  1.0000
  N   N240      1.0  0.7885785700000001  0.55502404  0.07420722  1.0000
  Si  Si181     1.0  0.7635328  0.37184682  0.18180719  1.0000
  Si  Si182     1.0  0.8426726600000001  0.43231031999999997  0.18180719  1.0000
  Si  Si183     1.0  0.73646939  0.46148594  0.23560719  1.0000
  Si  Si184     1.0  0.89379817  0.3625087299999999  0.18180719  1.0000
  N   N241      1.0  0.66666765  0.44444412999999994  0.23560719  1.0000
  N   N242      1.0  0.83333455  0.38888861  0.18180719  1.0000
  N   N243      1.0  0.87809052  0.44497524999999993  0.23560719  1.0000
  N   N244      1.0  0.77317578  0.4501095  0.18180719  1.0000
  N   N245      1.0  0.72682641  0.38322323  0.23560719  1.0000
  N   N246      1.0  0.8950867000000002  0.33846734  0.23560719  1.0000
  Si  Si185     1.0  0.67600576  0.5989768499999999  0.18180719  1.0000
  Si  Si186     1.0  0.72713127  0.52917526  0.18180719  1.0000
  N   N247      1.0  0.66666765  0.55555516  0.18180719  1.0000
  N   N248      1.0  0.71142362  0.61164181  0.23560719  1.0000
  N   N249      1.0  0.7284198000000001  0.5051339  0.23560719  1.0000
  Si  Si187     1.0  0.93953782  0.47082402999999995  0.23560719  1.0000
  Si  Si188     1.0  0.9906633300000002  0.4010224399999999  0.23560719  1.0000
  N   N250      1.0  0.9382493300000001  0.49486539  0.18180719  1.0000
  N   N251      1.0  0.9552454700000003  0.3883574799999999  0.18180719  1.0000
  Si  Si189     1.0  0.77287092  0.63749056  0.23560719  1.0000
  Si  Si190     1.0  0.93019971  0.53851335  0.18180719  1.0000
  Si  Si191     1.0  0.8239964300000001  0.5676889699999998  0.23560719  1.0000
  Si  Si192     1.0  0.9031362900000002  0.62815247  0.23560719  1.0000
  N   N252      1.0  0.83333455  0.61111068  0.23560719  1.0000
  N   N253      1.0  0.77158239  0.66153195  0.18180719  1.0000
  N   N254      1.0  0.93984268  0.61677606  0.18180719  1.0000
  N   N255      1.0  0.89349331  0.54988979  0.23560719  1.0000
  N   N256      1.0  0.7885785700000001  0.55502404  0.18180719  1.0000
  Si  Si193     1.0  0.7635328  0.70517991  0.07420722  1.0000
  Si  Si194     1.0  0.8426726600000001  0.76564341  0.07420722  1.0000
  Si  Si195     1.0  0.73646939  0.7948190299999998  0.12800722  1.0000
  Si  Si196     1.0  0.89379817  0.69584182  0.07420722  1.0000
  N   N257      1.0  0.66666765  0.77777724  0.12800722  1.0000
  N   N258      1.0  0.83333455  0.7222216999999999  0.07420722  1.0000
  N   N259      1.0  0.87809052  0.77830834  0.12800722  1.0000
  N   N260      1.0  0.77317578  0.78344259  0.07420722  1.0000
  N   N261      1.0  0.72682641  0.71655634  0.12800722  1.0000
  N   N262      1.0  0.8950867000000002  0.6718004299999999  0.12800722  1.0000
  Si  Si197     1.0  0.67600576  0.9323099699999999  0.07420722  1.0000
  Si  Si198     1.0  0.72713127  0.86250835  0.07420722  1.0000
  N   N263      1.0  0.66666765  0.88888825  0.07420722  1.0000
  N   N264      1.0  0.71142362  0.9449749  0.12800722  1.0000
  N   N265      1.0  0.7284198000000001  0.8384669899999998  0.12800722  1.0000
  Si  Si199     1.0  0.93953782  0.8041571199999998  0.12800722  1.0000
  Si  Si200     1.0  0.9906633300000002  0.73435553  0.12800722  1.0000
  N   N266      1.0  0.9382493300000001  0.8281985  0.07420722  1.0000
  N   N267      1.0  0.9552454700000003  0.7216906  0.07420722  1.0000
  Si  Si201     1.0  0.77287092  0.97082367  0.12800722  1.0000
  Si  Si202     1.0  0.93019971  0.8718464699999999  0.07420722  1.0000
  Si  Si203     1.0  0.8239964300000001  0.9010220799999997  0.12800722  1.0000
  Si  Si204     1.0  0.9031362900000002  0.96148559  0.12800722  1.0000
  N   N268      1.0  0.83333455  0.94444377  0.12800722  1.0000
  N   N269      1.0  0.77158239  0.9948650399999999  0.07420722  1.0000
  N   N270      1.0  0.93984268  0.9501091499999998  0.07420722  1.0000
  N   N271      1.0  0.89349331  0.8832228799999999  0.12800722  1.0000
  N   N272      1.0  0.7885785700000001  0.88835713  0.07420722  1.0000
  Si  Si205     1.0  0.7635328  0.70517991  0.18180719  1.0000
  Si  Si206     1.0  0.8426726600000001  0.76564341  0.18180719  1.0000
  Si  Si207     1.0  0.73646939  0.7948190299999998  0.23560719  1.0000
  Si  Si208     1.0  0.89379817  0.69584182  0.18180719  1.0000
  N   N273      1.0  0.66666765  0.77777724  0.23560719  1.0000
  N   N274      1.0  0.83333455  0.7222216999999999  0.18180719  1.0000
  N   N275      1.0  0.87809052  0.77830834  0.23560719  1.0000
  N   N276      1.0  0.77317578  0.78344259  0.18180719  1.0000
  N   N277      1.0  0.72682641  0.71655634  0.23560719  1.0000
  N   N278      1.0  0.8950867000000002  0.6718004299999999  0.23560719  1.0000
  Si  Si209     1.0  0.67600576  0.9323099699999999  0.18180719  1.0000
  Si  Si210     1.0  0.72713127  0.86250835  0.18180719  1.0000
  N   N279      1.0  0.66666765  0.88888825  0.18180719  1.0000
  N   N280      1.0  0.71142362  0.9449749  0.23560719  1.0000
  N   N281      1.0  0.7284198000000001  0.8384669899999998  0.23560719  1.0000
  Si  Si211     1.0  0.93953782  0.8041571199999998  0.23560719  1.0000
  Si  Si212     1.0  0.9906633300000002  0.73435553  0.23560719  1.0000
  N   N282      1.0  0.9382493300000001  0.8281985  0.18180719  1.0000
  N   N283      1.0  0.9552454700000003  0.7216906  0.18180719  1.0000
  Si  Si213     1.0  0.77287092  0.97082367  0.23560719  1.0000
  Si  Si214     1.0  0.93019971  0.8718464699999999  0.18180719  1.0000
  Si  Si215     1.0  0.8239964300000001  0.9010220799999997  0.23560719  1.0000
  Si  Si216     1.0  0.9031362900000002  0.96148559  0.23560719  1.0000
  N   N284      1.0  0.83333455  0.94444377  0.23560719  1.0000
  N   N285      1.0  0.77158239  0.9948650399999999  0.18180719  1.0000
  N   N286      1.0  0.93984268  0.9501091499999998  0.18180719  1.0000
  N   N287      1.0  0.89349331  0.8832228799999999  0.23560719  1.0000
  N   N288      1.0  0.7885785700000001  0.88835713  0.18180719  1.0000
  Mo  Mo1       1.0  0.8442622477373691  0.5075081575554427  0.5116840528672351  1.0000
  O   O1        1.0  0.8394769312014833  0.5004085774866325  0.392955514036055  1.0000
  O   O2        1.0  0.8490942693486475  0.5145073034428324  0.6304269340143189  1.0000
  O   O3        1.0  0.7642257175134046  0.4407526567968233  0.5218354515770794  1.0000
  O   O4        1.0  0.7278334422302302  0.5535295945796  0.5086518355983581  1.0000
  O   O5        1.0  0.9608119534739176  0.46161440822234284  0.5146770203804365  1.0000
  O   O6        1.0  0.9245147386713858  0.5741700452345724  0.5014252264863885  1.0000
  C   C1        1.0  0.8412998776246242  0.5029846906211427  0.43564072647436386  1.0000
  C   C2        1.0  0.8472358492073461  0.5119827453304194  0.5877359439916945  1.0000
  C   C3        1.0  0.7930534901673476  0.4647420751100398  0.518271108980157  1.0000
  C   C4        1.0  0.7697258008985218  0.5370123952143346  0.5098057878321085  1.0000
  C   C5        1.0  0.9188348057003112  0.47806071515535375  0.5135436841186581  1.0000
  C   C6        1.0  0.8955629550024683  0.5502345712727118  0.505051460067559  1.0000
  Mo  Mo2       1.0  0.3500782521457821  0.2928076151958373  0.4492715516679436  1.0000
  O   O7        1.0  0.4839862863724105  0.31279376100961936  0.47300675226668804  1.0000
  O   O8        1.0  0.2162130393111487  0.27272001586180883  0.42553272298286765  1.0000
  O   O9        1.0  0.39428716235911176  0.24606134777119187  0.3590200151456383  1.0000
  O   O10       1.0  0.3406669691861592  0.35634865979333075  0.3750243427370418  1.0000
  O   O11       1.0  0.3594312107474362  0.22936626571129198  0.5236710110721148  1.0000
  O   O12       1.0  0.30601459853293284  0.3394528698154931  0.5396864581329872  1.0000
  C   C7        1.0  0.43581321369151216  0.30561026586220513  0.46456311201722844  1.0000
  C   C8        1.0  0.264364114087529  0.2799574051447698  0.4339687466673874  1.0000
  C   C9        1.0  0.37829980046927464  0.26282997341154213  0.3914836196291195  1.0000
  C   C10       1.0  0.3439579280496078  0.3335097392282605  0.40173868460546996  1.0000
  C   C11       1.0  0.35617651760852126  0.25215339799799036  0.496858493393133  1.0000
  C   C12       1.0  0.32191820733053544  0.3227423738995444  0.5071290596937574  1.0000
  Mo  Mo3       1.0  0.23248202962585288  0.43797119816300084  0.687404941168144  1.0000
  O   O13       1.0  0.11401399743971072  0.4035431045270544  0.6466347929595293  1.0000
  O   O14       1.0  0.35103809706072076  0.47230828730224583  0.728165274693155  1.0000
  O   O15       1.0  0.2459320555055507  0.3775894479051686  0.7666695378307041  1.0000
  O   O16       1.0  0.15664166772492008  0.4804663185301688  0.7664570585614985  1.0000
  O   O17       1.0  0.30826332226093234  0.3955869265829403  0.6082183319390135  1.0000
  O   O18       1.0  0.2190625531259699  0.4982399457237216  0.6079516882295473  1.0000
  C   C13       1.0  0.15663493023125272  0.4159429550696466  0.6612086275947678  1.0000
  C   C14       1.0  0.3083688500382998  0.4599555177823599  0.7136059469540607  1.0000
  C   C15       1.0  0.241210448935333  0.39930796650711076  0.7381666211219654  1.0000
  C   C16       1.0  0.18397103660024217  0.4652301135919533  0.7380289944030206  1.0000
  C   C17       1.0  0.28095829097446867  0.4107613071499899  0.636734216489603  1.0000
  C   C18       1.0  0.22376672079676105  0.47658654158040953  0.6365629766067068  1.0000
  Mo  Mo4       1.0  0.35311325690031053  0.8670095448504354  0.7091258108918227  1.0000
  O   O19       1.0  0.288387567175255  0.9247224661857751  0.7731246582414758  1.0000
  O   O20       1.0  0.4179079668626203  0.8093685335931565  0.6450326707562176  1.0000
  O   O21       1.0  0.3003978256141452  0.8996386221163201  0.6093423504064832  1.0000
  O   O22       1.0  0.23871217677917328  0.8197325992154163  0.7187421109733166  1.0000
  O   O23       1.0  0.46757616856045187  0.9142286599933319  0.6997018753691708  1.0000
  O   O24       1.0  0.40598360992395227  0.8345247934249844  0.8089523834219257  1.0000
  C   C19       1.0  0.31174430544688875  0.9039703028376388  0.7501735346730356  1.0000
  C   C20       1.0  0.39450638533422916  0.8300815317218444  0.6680274238894869  1.0000
  C   C21       1.0  0.319443845431624  0.887884217496482  0.6451712288095275  1.0000
  C   C22       1.0  0.27989942297819304  0.8366851210481363  0.7152855533105325  1.0000
  C   C23       1.0  0.42633825050882457  0.8973064051387202  0.7030465105160716  1.0000
  C   C24       1.0  0.3868486976375158  0.8461960952777948  0.7730988145075615  1.0000
  Mo  Mo5       1.0  0.8683521231538973  0.9897687449524918  0.5814904539100738  1.0000
  O   O25       1.0  0.8086873254274255  0.9623051071035733  0.6818087576127642  1.0000
  O   O26       1.0  0.9280771455132798  0.017136651027070352  0.4811382484116139  1.0000
  O   O27       1.0  0.9885819052610184  0.9523057268196723  0.6114054907534391  1.0000
  O   O28       1.0  0.9111193089448578  0.056588931654366015  0.6394084805760961  1.0000
  O   O29       1.0  0.825366553643565  0.9230240236258321  0.5235469280251694  1.0000
  O   O30       1.0  0.7479841928001016  0.02707930391196617  0.5515613391379794  1.0000
  C   C25       1.0  0.8300441388689047  0.9721753955875384  0.6456934491333813  1.0000
  C   C26       1.0  0.9066986053726074  0.0073184994287428  0.5172751334702643  1.0000
  C   C27       1.0  0.945377389821164  0.9657689215981208  0.600554757054863  1.0000
  C   C28       1.0  0.8957322792326927  0.03259459586806451  0.6185169018558028  1.0000
  C   C29       1.0  0.8408868427735785  0.9469803818758497  0.5444620566125952  1.0000
  C   C30       1.0  0.7912679944209678  0.013703858558510808  0.5624199889420001  1.0000
  Mo  Mo6       1.0  0.5548177131075945  0.5680557754621803  0.45309401379482583  1.0000
  O   O31       1.0  0.5459058148172364  0.6201257649981843  0.5445105495857812  1.0000
  O   O32       1.0  0.5639022783885754  0.5159648791812972  0.36171133419980817  1.0000
  O   O33       1.0  0.6738236622185041  0.6045884626716991  0.41771911696169517  1.0000
  O   O34       1.0  0.47986278085363976  0.6195233077116133  0.3857230085102154  1.0000
  O   O35       1.0  0.6295426639065  0.51654131136311  0.5205314861406194  1.0000
  O   O36       1.0  0.4359446883169886  0.5314752183538491  0.4886835852512993  1.0000
  C   C31       1.0  0.5490654948247556  0.6013573046409627  0.5116925881496907  1.0000
  C   C32       1.0  0.5606546755715439  0.5347486586623598  0.3945047414151059  1.0000
  C   C33       1.0  0.6310699252791946  0.5913951848350919  0.43040030927115297  1.0000
  C   C34       1.0  0.5067720941944545  0.600975869782133  0.40990615762882  1.0000
  C   C35       1.0  0.6027614830262215  0.5351233560715891  0.49630322158483203  1.0000
  C   C36       1.0  0.4786218091733813  0.5446958880427886  0.47587892325555126  1.0000
  Mo  Mo7       1.0  0.21275774879217169  0.010635743649549586  0.8887276124068552  1.0000
  O   O37       1.0  0.1808815930394933  0.027857198695619326  0.7753251050617794  1.0000
  O   O38       1.0  0.24474597293423117  0.9934961438975869  0.0021372099926660368  1.0000
  O   O39       1.0  0.35001999355908514  0.01657473410328661  0.8623793526122576  1.0000
  O   O40       1.0  0.21622251883557547  0.9312880724434889  0.861712447281916  1.0000
  O   O41       1.0  0.20904120780054392  0.08996050886410646  0.9157655231122116  1.0000
  O   O42       1.0  0.07545813217128584  0.0048632546282683636  0.915019008756852  1.0000
  C   C37       1.0  0.1922525911520522  0.02169549588089911  0.8161293243669777  1.0000
  C   C38       1.0  0.23332450928058882  0.9996106213016334  0.961327552899387  1.0000
  C   C39       1.0  0.3006871328576862  0.014458629948994235  0.8719446237841377  1.0000
  C   C40       1.0  0.2149437651592146  0.9598040160588556  0.871499600041686  1.0000
  C   C41       1.0  0.21046925625006355  0.0614497339982646  0.9059596150344207  1.0000
  C   C42       1.0  0.12481227769758742  0.006883604311667022  0.9054866161417539  1.0000
  Mo  Mo8       1.0  0.8824417777756464  0.6051324740333766  0.6612307373268245  1.0000
  O   O43       1.0  0.8422554963855405  0.5631705750357807  0.7576490227916604  1.0000
  O   O44       1.0  0.9227131468042472  0.6471646298580959  0.5648997831182314  1.0000
  O   O45       1.0  0.8349065168583187  0.6736337739530528  0.7118020669492995  1.0000
  O   O46       1.0  0.7553753336891146  0.5928112282289736  0.6125367326695715  1.0000
  O   O47       1.0  0.009562527942013347  0.6173209065239478  0.7098410118384666  1.0000
  O   O48       1.0  0.9301792867317944  0.5366142785025019  0.6108432370046921  1.0000
  C   C43       1.0  0.856790877426267  0.578219467485078  0.7229687906718014  1.0000
  C   C44       1.0  0.9081238033004588  0.6320825460638768  0.5995332599136843  1.0000
  C   C45       1.0  0.8520775252558137  0.6490381375337748  0.6935693432838466  1.0000
  C   C46       1.0  0.8011002762884136  0.5972394265474112  0.6299700135144228  1.0000
  C   C47       1.0  0.9637904702292742  0.6129693978942868  0.6924539948872905  1.0000
  C   C48       1.0  0.912892138058691  0.5612195607324532  0.6289700675049444  1.0000
  H   H1        1.0  0.032623060304251515  0.7065238203987618  0.6549608821452988  1.0000
  H   H2        1.0  0.024660739904156667  0.7246043134229421  0.6525665315042952  1.0000
  H   H3        1.0  0.46262588394870024  0.09882551404690579  0.36066244492005317  1.0000
  H   H4        1.0  0.4602345934932969  0.10556386549237902  0.3351706172356959  1.0000
  H   H5        1.0  0.03525462906305277  0.32907949999073177  0.66496251033081  1.0000
  H   H6        1.0  0.03441967827975068  0.34507668822918186  0.679194680934636  1.0000
  H   H7        1.0  0.879744548356968  0.2611130808599304  0.34843816755069174  1.0000
  H   H8        1.0  0.8849726022830854  0.27865302207389936  0.3569658804205632  1.0000
  H   H9        1.0  0.8704723168719362  0.5982121628389662  0.8256736649536606  1.0000
  H   H10       1.0  0.8761549830303054  0.6153781017311059  0.8355215919075016  1.0000
  H   H11       1.0  0.0736265410069398  0.48583863364886787  0.4044880974615483  1.0000
  H   H12       1.0  0.059086519690431404  0.4871879879842265  0.38006820476495884  1.0000
  H   H13       1.0  0.5460585798518492  0.15559782527158306  0.4296340032441352  1.0000
  H   H14       1.0  0.549514879665027  0.16209576744472318  0.4040957454179157  1.0000
  H   H15       1.0  0.5098198799448344  0.34481689150788897  0.8302607139969114  1.0000
  H   H16       1.0  0.5154959510046865  0.34150549600251956  0.8568064989971798  1.0000
  H   H17       1.0  0.6023567448395347  0.7705023828392247  0.4813796706344809  1.0000
  H   H18       1.0  0.605373780933194  0.7585162362827139  0.46047615931545116  1.0000
  H   H19       1.0  0.2024688314235999  0.7640792566417586  0.4196802219631008  1.0000
  H   H20       1.0  0.18170981231410852  0.7779319479679269  0.41397979954643116  1.0000
  H   H21       1.0  0.6403812030818854  0.05680988351568348  0.3650079443395702  1.0000
  H   H22       1.0  0.6681702318817981  0.05698551817528376  0.37914215696161707  1.0000
  H   H23       1.0  0.03329462597760271  0.32466325214897024  0.5363199536123955  1.0000
  H   H24       1.0  0.018166206955912406  0.33455290353518463  0.555769542883239  1.0000
  H   H25       1.0  0.8281883340512582  0.24153107799688714  0.8611263399060308  1.0000
  H   H26       1.0  0.8530313507230126  0.23000894630500232  0.8662443631853322  1.0000
  H   H27       1.0  0.7887728847726572  0.8101727928317193  0.4651848428883494  1.0000
  H   H28       1.0  0.7873082602986083  0.8246373154443534  0.4478205850720993  1.0000
  H   H29       1.0  0.31894566767368104  0.8673114650556084  0.9602503200314789  1.0000
  H   H30       1.0  0.3012208789048832  0.88032926552023  0.9730530482095064  1.0000
  H   H31       1.0  0.7199630263752926  0.8266851664757249  0.6385585649426488  1.0000
  H   H32       1.0  0.727882181231343  0.8094932585500734  0.6471231690655401  1.0000
  H   H33       1.0  0.610755623974261  0.33574715154321294  0.8775284413984639  1.0000
  H   H34       1.0  0.610365419668241  0.3170793006100862  0.8796864051464698  1.0000
  H   H35       1.0  0.891821602278617  0.32796677444299627  0.6702542346149102  1.0000
  H   H36       1.0  0.8896386913231003  0.3449533517088708  0.6588632428295733  1.0000
  H   H37       1.0  0.46231953490736905  0.7933955693757011  0.40663647849094614  1.0000
  H   H38       1.0  0.46234691213632395  0.8080306617087867  0.42373669604500797  1.0000
  H   H39       1.0  0.7319357525887822  0.1376861904548166  0.653198009014539  1.0000
  H   H40       1.0  0.7342075583199867  0.15533700150466065  0.6621531413894359  1.0000
  H   H41       1.0  0.956033421525365  0.5106286015725235  0.770944001082456  1.0000
  H   H42       1.0  0.9621910103535916  0.49408531310578147  0.7826880155992522  1.0000
  H   H43       1.0  0.7224622032398117  0.1977910292643942  0.8111790426046377  1.0000
  H   H44       1.0  0.735893909150317  0.20921811629767656  0.8296908924702928  1.0000
  H   H45       1.0  0.5671330894216035  0.7767099982222603  0.6616188309822323  1.0000
  H   H46       1.0  0.5944060434028128  0.7862009985154481  0.6564038489120679  1.0000
  H   H47       1.0  0.5461107383560478  0.2698544881007796  0.9607070183742324  1.0000
  H   H48       1.0  0.5476460180184114  0.2579056386857198  0.9396431959774427  1.0000
  H   H49       1.0  0.4375695199866484  0.1449660848157169  0.6962030045548652  1.0000
  H   H50       1.0  0.4358256631155338  0.13434154342903393  0.7187246427321842  1.0000
  H   H51       1.0  0.4966556147291004  0.5433083353712566  0.7720276331744479  1.0000
  H   H52       1.0  0.49726593525855317  0.5571040586920337  0.7535002385961018  1.0000
  H   H53       1.0  0.5170155018293993  0.5065306396649992  0.5330773298150313  1.0000
  H   H54       1.0  0.4967030469447868  0.49834154718619744  0.5507681526414946  1.0000
  H   H55       1.0  0.5163356583032614  0.9554626990756929  0.8247262115900406  1.0000
  H   H56       1.0  0.5044248712779847  0.9398338381060002  0.8359831145738053  1.0000
  H   H57       1.0  0.9451320986561745  0.033496160590038807  0.9192771366161646  1.0000
  H   H58       1.0  0.9216483891581491  0.027871683881805595  0.9022570148148621  1.0000
  H   H59       1.0  0.6702433019805578  0.8618316501543736  0.7556940943020061  1.0000
  H   H60       1.0  0.6816889660272097  0.8502446073875499  0.7749315027023808  1.0000
  H   H61       1.0  0.45977839633029727  0.5477684701212928  0.6616447978093307  1.0000
  H   H62       1.0  0.449959477852425  0.5647312981361762  0.6535175572380696  1.0000
  H   H63       1.0  0.7825765851948173  0.9484170823903073  0.4030566548543645  1.0000
  H   H64       1.0  0.7797284670814804  0.9648464508706918  0.39012431710374074  1.0000
  H   H65       1.0  0.3186106651092696  0.7380818390658402  0.768572807622924  1.0000
  H   H66       1.0  0.2904092764445091  0.7406315715321685  0.7555561169805773  1.0000
  H   H67       1.0  0.41756946816632434  0.37134860138554243  0.4173356484031471  1.0000
  H   H68       1.0  0.4065648492033016  0.36243496247297213  0.43957374515670455  1.0000
  H   H69       1.0  0.12632593173676576  0.41283168167922996  0.5502082260256905  1.0000
  H   H70       1.0  0.14830781342289748  0.4264211535075368  0.5469446339809113  1.0000
  H   H71       1.0  0.3159262983838228  0.7879254720936125  0.4557126190227519  1.0000
  H   H72       1.0  0.28883700389246586  0.7971278854496755  0.44893925050487526  1.0000
  H   H73       1.0  0.5731647162183664  0.48544603446557594  0.9905773283561717  1.0000
  H   H74       1.0  0.5886517047006027  0.4690578985578049  0.9927451067482821  1.0000
  H   H75       1.0  0.02063326709490763  0.08913033040058412  0.9963516731010028  1.0000
  H   H76       1.0  0.9952375914803622  0.07988426263323657  0.98597790084224  1.0000
